<?xml version="1.0" encoding="UTF-8"?>

<!-- generated on 2023-04-12 11:50:29 by Eclipse SUMO netconvert Version 1.16.0
<configuration xmlns:xsi="http://www.w3.org/2001/XMLSchema-instance" xsi:noNamespaceSchemaLocation="http://sumo.dlr.de/xsd/netconvertConfiguration.xsd">

    <input>
        <osm-files value="map.osm"/>
    </input>

    <output>
        <output-file value="auwaldsee.net.xml"/>
    </output>

    <projection>
        <proj.utm value="true"/>
    </projection>

</configuration>
-->

<net version="1.16" junctionCornerDetail="5" limitTurnSpeed="5.50" xmlns:xsi="http://www.w3.org/2001/XMLSchema-instance" xsi:noNamespaceSchemaLocation="http://sumo.dlr.de/xsd/net_file.xsd">

    <location netOffset="-680082.24,-5400237.80" convBoundary="0.00,0.00,2683.25,3330.21" origBoundary="11.450125,48.728591,11.486511,48.758910" projParameter="+proj=utm +zone=32 +ellps=WGS84 +datum=WGS84 +units=m +no_defs"/>

    <type id="highway.bridleway" priority="1" numLanes="1" speed="2.78" allow="pedestrian" oneway="1" width="2.00"/>
    <type id="highway.bus_guideway" priority="1" numLanes="1" speed="27.78" allow="bus" oneway="1"/>
    <type id="highway.cycleway" priority="1" numLanes="1" speed="5.56" allow="bicycle" oneway="0" width="1.00"/>
    <type id="highway.footway" priority="1" numLanes="1" speed="2.78" allow="pedestrian" oneway="1" width="2.00"/>
    <type id="highway.ford" priority="1" numLanes="1" speed="2.78" allow="army" oneway="0"/>
    <type id="highway.living_street" priority="2" numLanes="1" speed="2.78" disallow="tram rail_urban rail rail_electric rail_fast ship" oneway="0"/>
    <type id="highway.motorway" priority="14" numLanes="2" speed="39.44" allow="private emergency authority army vip passenger hov taxi bus coach delivery truck trailer motorcycle evehicle custom1 custom2" oneway="1"/>
    <type id="highway.motorway_link" priority="9" numLanes="1" speed="22.22" allow="private emergency authority army vip passenger hov taxi bus coach delivery truck trailer motorcycle evehicle custom1 custom2" oneway="1"/>
    <type id="highway.path" priority="1" numLanes="1" speed="5.56" allow="pedestrian bicycle" oneway="0" width="2.00"/>
    <type id="highway.pedestrian" priority="1" numLanes="1" speed="2.78" allow="pedestrian" oneway="1" width="2.00"/>
    <type id="highway.primary" priority="12" numLanes="2" speed="27.78" disallow="tram rail_urban rail rail_electric rail_fast ship" oneway="0"/>
    <type id="highway.primary_link" priority="7" numLanes="1" speed="22.22" disallow="tram rail_urban rail rail_electric rail_fast ship" oneway="0"/>
    <type id="highway.raceway" priority="15" numLanes="2" speed="83.33" allow="vip" oneway="0"/>
    <type id="highway.residential" priority="3" numLanes="1" speed="13.89" disallow="tram rail_urban rail rail_electric rail_fast ship" oneway="0"/>
    <type id="highway.secondary" priority="11" numLanes="1" speed="27.78" disallow="tram rail_urban rail rail_electric rail_fast ship" oneway="0"/>
    <type id="highway.secondary_link" priority="6" numLanes="1" speed="22.22" disallow="tram rail_urban rail rail_electric rail_fast ship" oneway="0"/>
    <type id="highway.service" priority="1" numLanes="1" speed="5.56" allow="pedestrian delivery bicycle" oneway="0"/>
    <type id="highway.stairs" priority="1" numLanes="1" speed="1.39" allow="pedestrian" oneway="1" width="2.00"/>
    <type id="highway.step" priority="1" numLanes="1" speed="1.39" allow="pedestrian" oneway="1" width="2.00"/>
    <type id="highway.steps" priority="1" numLanes="1" speed="1.39" allow="pedestrian" oneway="1" width="2.00"/>
    <type id="highway.tertiary" priority="10" numLanes="1" speed="22.22" disallow="tram rail_urban rail rail_electric rail_fast ship" oneway="0"/>
    <type id="highway.tertiary_link" priority="5" numLanes="1" speed="22.22" disallow="tram rail_urban rail rail_electric rail_fast ship" oneway="0"/>
    <type id="highway.track" priority="1" numLanes="1" speed="5.56" allow="pedestrian motorcycle moped bicycle" oneway="0"/>
    <type id="highway.trunk" priority="13" numLanes="2" speed="27.78" disallow="pedestrian bicycle tram rail_urban rail rail_electric rail_fast ship" oneway="0"/>
    <type id="highway.trunk_link" priority="8" numLanes="1" speed="22.22" disallow="pedestrian bicycle tram rail_urban rail rail_electric rail_fast ship" oneway="0"/>
    <type id="highway.unclassified" priority="4" numLanes="1" speed="13.89" disallow="tram rail_urban rail rail_electric rail_fast ship" oneway="0"/>
    <type id="highway.unsurfaced" priority="1" numLanes="1" speed="8.33" disallow="tram rail_urban rail rail_electric rail_fast ship" oneway="0"/>
    <type id="railway.highspeed" priority="21" numLanes="1" speed="69.44" allow="rail_fast" oneway="1"/>
    <type id="railway.light_rail" priority="19" numLanes="1" speed="27.78" allow="rail_urban" oneway="1"/>
    <type id="railway.preserved" priority="16" numLanes="1" speed="27.78" allow="rail" oneway="1"/>
    <type id="railway.rail" priority="20" numLanes="1" speed="44.44" allow="rail" oneway="1"/>
    <type id="railway.subway" priority="18" numLanes="1" speed="27.78" allow="rail_urban" oneway="1"/>
    <type id="railway.tram" priority="17" numLanes="1" speed="13.89" allow="tram" oneway="1"/>

    <edge id=":10056118313_0" function="internal">
        <lane id=":10056118313_0_0" index="0" disallow="tram rail_urban rail rail_electric rail_fast ship" speed="3.65" length="4.67" shape="2119.34,2642.87 2118.49,2641.71 2118.39,2640.82 2119.04,2640.20 2120.44,2639.86"/>
    </edge>
    <edge id=":10056118314_0" function="internal">
        <lane id=":10056118314_0_0" index="0" disallow="tram rail_urban rail rail_electric rail_fast ship" speed="3.65" length="4.67" shape="2095.29,2695.67 2094.44,2694.50 2094.34,2693.61 2094.99,2693.00 2096.40,2692.67"/>
    </edge>
    <edge id=":10056118315_0" function="internal">
        <lane id=":10056118315_0_0" index="0" disallow="tram rail_urban rail rail_electric rail_fast ship" speed="3.65" length="4.67" shape="2061.28,2785.69 2060.42,2784.54 2060.31,2783.65 2060.96,2783.03 2062.36,2782.68"/>
    </edge>
    <edge id=":10139453987_0" function="internal">
        <lane id=":10139453987_0_0" index="0" disallow="tram rail_urban rail rail_electric rail_fast ship" speed="13.89" length="0.30" shape="1618.71,2233.62 1618.43,2233.52"/>
        <lane id=":10139453987_0_1" index="1" disallow="tram rail_urban rail rail_electric rail_fast ship" speed="13.89" length="0.30" shape="1619.78,2230.60 1619.50,2230.50"/>
    </edge>
    <edge id=":10139453987_2" function="internal">
        <lane id=":10139453987_2_0" index="0" disallow="tram rail_urban rail rail_electric rail_fast ship" speed="13.89" length="0.30" shape="1621.64,2224.47 1621.92,2224.57"/>
        <lane id=":10139453987_2_1" index="1" disallow="tram rail_urban rail rail_electric rail_fast ship" speed="13.89" length="0.30" shape="1620.57,2227.49 1620.85,2227.59"/>
    </edge>
    <edge id=":10139453988_0" function="internal">
        <lane id=":10139453988_0_0" index="0" disallow="tram rail_urban rail rail_electric rail_fast ship" speed="13.89" length="0.30" shape="1648.42,2244.11 1648.13,2244.01"/>
        <lane id=":10139453988_0_1" index="1" disallow="tram rail_urban rail rail_electric rail_fast ship" speed="13.89" length="0.30" shape="1649.45,2241.08 1649.16,2240.99"/>
    </edge>
    <edge id=":10139453988_2" function="internal">
        <lane id=":10139453988_2_0" index="0" disallow="tram rail_urban rail rail_electric rail_fast ship" speed="13.89" length="0.15" shape="1651.38,2234.98 1651.51,2235.03"/>
        <lane id=":10139453988_2_1" index="1" disallow="tram rail_urban rail rail_electric rail_fast ship" speed="13.89" length="0.15" shape="1650.34,2238.01 1650.48,2238.05"/>
    </edge>
    <edge id=":10139453989_0" function="internal">
        <lane id=":10139453989_0_0" index="0" disallow="tram rail_urban rail rail_electric rail_fast ship" speed="13.89" length="0.30" shape="1641.24,2221.49 1641.13,2221.77"/>
    </edge>
    <edge id=":10139453989_1" function="internal">
        <lane id=":10139453989_1_0" index="0" disallow="tram rail_urban rail rail_electric rail_fast ship" speed="13.89" length="0.30" shape="1638.16,2220.58 1638.27,2220.30"/>
    </edge>
    <edge id=":1067415551_0" function="internal">
        <lane id=":1067415551_0_0" index="0" allow="pedestrian delivery bicycle" speed="4.67" length="6.58" shape="916.67,2859.39 915.76,2857.50 914.77,2856.83 913.71,2857.37 912.56,2859.12"/>
    </edge>
    <edge id=":1067415551_1" function="internal">
        <lane id=":1067415551_1_0" index="0" allow="pedestrian delivery bicycle" speed="5.56" length="12.88" shape="916.67,2859.39 915.38,2855.12 914.76,2851.61 914.79,2848.86 915.49,2846.87"/>
    </edge>
    <edge id=":1067415551_2" function="internal">
        <lane id=":1067415551_2_0" index="0" allow="pedestrian delivery bicycle" speed="3.65" length="4.67" shape="916.67,2859.39 917.03,2857.99 917.65,2857.35 918.54,2857.47 919.69,2858.34"/>
    </edge>
    <edge id=":1067415551_3" function="internal">
        <lane id=":1067415551_3_0" index="0" allow="pedestrian delivery bicycle" speed="5.56" length="10.04" shape="918.19,2848.59 917.82,2849.92 917.95,2851.99 918.57,2854.79 919.69,2858.34"/>
    </edge>
    <edge id=":1067415551_4" function="internal">
        <lane id=":1067415551_4_0" index="0" allow="pedestrian delivery bicycle" speed="5.56" length="11.95" shape="918.19,2848.59 916.49,2851.39 915.21,2853.76 914.01,2856.18 912.56,2859.12"/>
    </edge>
    <edge id=":1067415551_5" function="internal">
        <lane id=":1067415551_5_0" index="0" allow="pedestrian delivery bicycle" speed="3.65" length="4.67" shape="918.19,2848.59 916.87,2849.17 915.98,2849.08 915.52,2848.31 915.49,2846.87"/>
    </edge>
    <edge id=":1067415551_6" function="internal">
        <lane id=":1067415551_6_0" index="0" allow="pedestrian delivery bicycle" speed="5.56" length="12.28" shape="909.70,2857.68 911.17,2854.70 912.43,2852.18 913.77,2849.71 915.49,2846.87"/>
    </edge>
    <edge id=":1067415551_7" function="internal">
        <lane id=":1067415551_7_0" index="0" allow="pedestrian delivery bicycle" speed="5.56" length="16.00" shape="909.70,2857.68 912.49,2853.42 915.08,2852.11 917.48,2853.75 919.69,2858.34"/>
    </edge>
    <edge id=":1067415551_8" function="internal">
        <lane id=":1067415551_8_0" index="0" allow="pedestrian delivery bicycle" speed="3.65" length="4.67" shape="909.70,2857.68 910.95,2856.97 911.85,2856.97 912.38,2857.69 912.56,2859.12"/>
    </edge>
    <edge id=":1067415606_0" function="internal">
        <lane id=":1067415606_0_0" index="0" disallow="tram rail_urban rail rail_electric rail_fast ship" speed="13.89" length="9.53" shape="1902.38,2243.71 1899.40,2252.76"/>
    </edge>
    <edge id=":1067415606_1" function="internal">
        <lane id=":1067415606_1_0" index="0" allow="pedestrian delivery bicycle" speed="6.87" length="3.34" shape="1902.38,2243.71 1901.17,2246.23 1900.76,2246.59"/>
    </edge>
    <edge id=":1067415606_7" function="internal">
        <lane id=":1067415606_7_0" index="0" allow="pedestrian delivery bicycle" speed="6.87" length="6.89" shape="1900.76,2246.59 1899.44,2247.75 1897.18,2248.27 1894.41,2247.80"/>
    </edge>
    <edge id=":1067415606_2" function="internal">
        <lane id=":1067415606_2_0" index="0" allow="pedestrian delivery bicycle" speed="5.05" length="5.05" shape="1895.38,2244.75 1896.76,2244.99 1897.87,2244.73 1898.73,2243.99 1899.32,2242.75"/>
    </edge>
    <edge id=":1067415606_3" function="internal">
        <lane id=":1067415606_3_0" index="0" allow="pedestrian delivery bicycle" speed="6.84" length="10.27" shape="1895.38,2244.75 1897.92,2245.98 1899.44,2247.73 1899.93,2249.99 1899.40,2252.76"/>
    </edge>
    <edge id=":1067415606_4" function="internal">
        <lane id=":1067415606_4_0" index="0" allow="pedestrian delivery bicycle" speed="3.65" length="4.67" shape="1895.38,2244.75 1896.28,2245.88 1896.42,2246.76 1895.79,2247.40 1894.41,2247.80"/>
    </edge>
    <edge id=":1067415606_5" function="internal">
        <lane id=":1067415606_5_0" index="0" allow="pedestrian delivery bicycle" speed="5.02" length="5.03" shape="1896.37,2251.72 1896.63,2250.36 1896.39,2249.26 1895.65,2248.40 1894.41,2247.80"/>
    </edge>
    <edge id=":1067415606_6" function="internal">
        <lane id=":1067415606_6_0" index="0" disallow="tram rail_urban rail rail_electric rail_fast ship" speed="13.89" length="9.44" shape="1896.37,2251.72 1899.32,2242.75"/>
    </edge>
    <edge id=":1067415613_0" function="internal">
        <lane id=":1067415613_0_0" index="0" allow="pedestrian delivery bicycle" speed="5.15" length="5.14" shape="1869.94,2239.94 1868.59,2239.72 1867.47,2240.01 1866.58,2240.79 1865.93,2242.06"/>
    </edge>
    <edge id=":1067415613_1" function="internal">
        <lane id=":1067415613_1_0" index="0" allow="pedestrian delivery bicycle" speed="5.56" length="9.43" shape="1869.94,2239.94 1860.95,2237.09"/>
    </edge>
    <edge id=":1067415613_2" function="internal">
        <lane id=":1067415613_2_0" index="0" allow="pedestrian delivery bicycle" speed="5.56" length="10.17" shape="1869.94,2239.94 1867.46,2238.74 1865.95,2237.02 1865.40,2234.77 1865.81,2231.99"/>
    </edge>
    <edge id=":1067415613_3" function="internal">
        <lane id=":1067415613_3_0" index="0" allow="pedestrian delivery bicycle" speed="3.65" length="4.67" shape="1869.94,2239.94 1869.03,2238.82 1868.89,2237.93 1869.52,2237.29 1870.90,2236.89"/>
    </edge>
    <edge id=":1067415613_4" function="internal">
        <lane id=":1067415613_4_0" index="0" allow="pedestrian delivery bicycle" speed="5.11" length="5.09" shape="1868.88,2232.89 1868.67,2234.29 1868.93,2235.43 1869.68,2236.29 1870.90,2236.89"/>
    </edge>
    <edge id=":1067415613_5" function="internal">
        <lane id=":1067415613_5_0" index="0" allow="pedestrian delivery bicycle" speed="5.56" length="9.64" shape="1868.88,2232.89 1865.93,2242.06"/>
    </edge>
    <edge id=":1067415613_6" function="internal">
        <lane id=":1067415613_6_0" index="0" allow="pedestrian delivery bicycle" speed="5.56" length="10.28" shape="1868.88,2232.89 1867.70,2235.46 1865.99,2237.01 1863.74,2237.56 1860.95,2237.09"/>
    </edge>
    <edge id=":1067415613_7" function="internal">
        <lane id=":1067415613_7_0" index="0" allow="pedestrian delivery bicycle" speed="3.65" length="4.67" shape="1868.88,2232.89 1867.77,2233.81 1866.89,2233.97 1866.24,2233.36 1865.81,2231.99"/>
    </edge>
    <edge id=":1067415613_8" function="internal">
        <lane id=":1067415613_8_0" index="0" allow="pedestrian delivery bicycle" speed="5.02" length="5.04" shape="1861.92,2234.04 1863.29,2234.27 1864.39,2234.01 1865.23,2233.24 1865.81,2231.99"/>
    </edge>
    <edge id=":1067415613_9" function="internal">
        <lane id=":1067415613_9_0" index="0" allow="pedestrian delivery bicycle" speed="5.56" length="9.42" shape="1861.92,2234.04 1870.90,2236.89"/>
    </edge>
    <edge id=":1067415613_10" function="internal">
        <lane id=":1067415613_10_0" index="0" allow="pedestrian delivery bicycle" speed="5.56" length="10.29" shape="1861.92,2234.04 1864.47,2235.27 1865.99,2237.02 1866.48,2239.29 1865.93,2242.06"/>
    </edge>
    <edge id=":1067415613_11" function="internal">
        <lane id=":1067415613_11_0" index="0" allow="pedestrian delivery bicycle" speed="3.65" length="4.67" shape="1861.92,2234.04 1862.82,2235.17 1862.96,2236.05 1862.34,2236.69 1860.95,2237.09"/>
    </edge>
    <edge id=":1067415613_12" function="internal">
        <lane id=":1067415613_12_0" index="0" allow="pedestrian delivery bicycle" speed="5.01" length="5.03" shape="1862.91,2241.01 1863.18,2239.65 1862.94,2238.55 1862.20,2237.69 1860.95,2237.09"/>
    </edge>
    <edge id=":1067415613_13" function="internal">
        <lane id=":1067415613_13_0" index="0" allow="pedestrian delivery bicycle" speed="5.56" length="9.48" shape="1862.91,2241.01 1865.81,2231.99"/>
    </edge>
    <edge id=":1067415613_14" function="internal">
        <lane id=":1067415613_14_0" index="0" allow="pedestrian delivery bicycle" speed="5.56" length="10.19" shape="1862.91,2241.01 1864.19,2238.51 1865.95,2236.99 1868.19,2236.45 1870.90,2236.89"/>
    </edge>
    <edge id=":1067415613_15" function="internal">
        <lane id=":1067415613_15_0" index="0" allow="pedestrian delivery bicycle" speed="3.65" length="4.67" shape="1862.91,2241.01 1864.06,2240.14 1864.95,2240.03 1865.57,2240.67 1865.93,2242.06"/>
    </edge>
    <edge id=":1067415648_0" function="internal">
        <lane id=":1067415648_0_0" index="0" allow="pedestrian delivery bicycle" speed="5.02" length="5.02" shape="1853.52,2234.72 1852.16,2234.49 1851.06,2234.76 1850.22,2235.52 1849.65,2236.77"/>
    </edge>
    <edge id=":1067415648_1" function="internal">
        <lane id=":1067415648_1_0" index="0" allow="pedestrian delivery bicycle" speed="5.56" length="10.15" shape="1853.52,2234.72 1851.00,2233.51 1849.44,2231.80 1848.85,2229.59 1849.23,2226.87"/>
    </edge>
    <edge id=":1067415648_2" function="internal">
        <lane id=":1067415648_2_0" index="0" allow="pedestrian delivery bicycle" speed="3.65" length="4.67" shape="1853.52,2234.72 1852.62,2233.60 1852.48,2232.71 1853.11,2232.07 1854.50,2231.67"/>
    </edge>
    <edge id=":1067415648_3" function="internal">
        <lane id=":1067415648_3_0" index="0" allow="pedestrian delivery bicycle" speed="5.12" length="5.08" shape="1852.30,2227.76 1852.12,2229.11 1852.42,2230.21 1853.21,2231.07 1854.50,2231.67"/>
    </edge>
    <edge id=":1067415648_4" function="internal">
        <lane id=":1067415648_4_0" index="0" allow="pedestrian delivery bicycle" speed="5.56" length="9.39" shape="1852.30,2227.76 1849.65,2236.77"/>
    </edge>
    <edge id=":1067415648_5" function="internal">
        <lane id=":1067415648_5_0" index="0" allow="pedestrian delivery bicycle" speed="3.65" length="4.67" shape="1852.30,2227.76 1851.20,2228.69 1850.32,2228.85 1849.66,2228.24 1849.23,2226.87"/>
    </edge>
    <edge id=":1067415648_6" function="internal">
        <lane id=":1067415648_6_0" index="0" allow="pedestrian delivery bicycle" speed="5.56" length="9.37" shape="1846.58,2235.86 1849.23,2226.87"/>
    </edge>
    <edge id=":1067415648_7" function="internal">
        <lane id=":1067415648_7_0" index="0" allow="pedestrian delivery bicycle" speed="5.56" length="10.25" shape="1846.58,2235.86 1847.76,2233.30 1849.47,2231.75 1851.72,2231.21 1854.50,2231.67"/>
    </edge>
    <edge id=":1067415648_8" function="internal">
        <lane id=":1067415648_8_0" index="0" allow="pedestrian delivery bicycle" speed="3.65" length="4.67" shape="1846.58,2235.86 1847.69,2234.94 1848.57,2234.78 1849.22,2235.39 1849.65,2236.77"/>
    </edge>
    <edge id=":1067415689_0" function="internal">
        <lane id=":1067415689_0_0" index="0" allow="pedestrian bicycle" speed="2.89" length="2.92" width="2.00" shape="807.98,2718.41 807.71,2719.27 807.30,2719.65 806.75,2719.55 806.06,2718.97"/>
    </edge>
    <edge id=":1067415735_0" function="internal">
        <lane id=":1067415735_0_0" index="0" allow="pedestrian delivery bicycle" speed="4.58" length="4.21" shape="1907.76,2337.44 1906.40,2337.03 1905.35,2337.02 1904.60,2337.41 1904.15,2338.19"/>
    </edge>
    <edge id=":1067415735_1" function="internal">
        <lane id=":1067415735_1_0" index="0" disallow="tram rail_urban rail rail_electric rail_fast ship" speed="13.89" length="9.35" shape="1907.76,2337.44 1899.07,2333.87"/>
        <lane id=":1067415735_1_1" index="1" disallow="tram rail_urban rail rail_electric rail_fast ship" speed="13.89" length="9.35" shape="1908.94,2334.46 1900.32,2330.92"/>
    </edge>
    <edge id=":1067415735_3" function="internal">
        <lane id=":1067415735_3_0" index="0" disallow="tram rail_urban rail rail_electric rail_fast ship" speed="13.89" length="9.17" shape="1904.09,2322.09 1912.50,2325.55"/>
        <lane id=":1067415735_3_1" index="1" disallow="tram rail_urban rail rail_electric rail_fast ship" speed="13.89" length="9.17" shape="1902.83,2325.04 1911.31,2328.52"/>
        <lane id=":1067415735_3_2" index="2" disallow="tram rail_urban rail rail_electric rail_fast ship" speed="13.89" length="9.17" shape="1901.58,2327.98 1910.13,2331.49"/>
    </edge>
    <edge id=":1067415735_6" function="internal">
        <lane id=":1067415735_6_0" index="0" allow="pedestrian delivery bicycle" speed="7.59" length="2.60" shape="1901.58,2327.98 1903.62,2329.42 1903.67,2329.51"/>
    </edge>
    <edge id=":1067415735_11" function="internal">
        <lane id=":1067415735_11_0" index="0" allow="pedestrian delivery bicycle" speed="7.59" length="9.01" shape="1903.67,2329.51 1904.72,2331.60 1904.90,2334.52 1904.15,2338.19"/>
    </edge>
    <edge id=":1067415735_7" function="internal">
        <lane id=":1067415735_7_0" index="0" allow="pedestrian delivery bicycle" speed="4.96" length="4.39" shape="1901.09,2337.26 1901.22,2336.21 1900.92,2335.29 1900.21,2334.51 1899.07,2333.87"/>
    </edge>
    <edge id=":1067415735_8" function="internal">
        <lane id=":1067415735_8_0" index="0" allow="pedestrian delivery bicycle" speed="8.05" length="15.35" shape="1901.09,2337.26 1903.02,2332.42 1905.37,2329.35 1908.13,2328.05 1911.31,2328.52"/>
        <lane id=":1067415735_8_1" index="1" allow="pedestrian delivery bicycle" speed="7.31" length="12.43" shape="1901.09,2337.26 1902.60,2333.76 1904.61,2331.63 1907.12,2330.88 1910.13,2331.49"/>
    </edge>
    <edge id=":1067415735_10" function="internal">
        <lane id=":1067415735_10_0" index="0" allow="pedestrian delivery bicycle" speed="3.65" length="4.67" shape="1901.09,2337.26 1902.20,2336.35 1903.08,2336.19 1903.73,2336.81 1904.15,2338.19"/>
    </edge>
    <edge id=":1067415772_0" function="internal">
        <lane id=":1067415772_0_0" index="0" allow="pedestrian delivery bicycle" speed="3.65" length="4.67" shape="1863.60,2177.55 1864.70,2176.62 1865.58,2176.46 1866.24,2177.07 1866.67,2178.45"/>
    </edge>
    <edge id=":1067415803_0" function="internal">
        <lane id=":1067415803_0_0" index="0" allow="pedestrian delivery bicycle" speed="5.01" length="5.03" shape="1887.35,2245.50 1885.99,2245.26 1884.88,2245.51 1884.04,2246.27 1883.46,2247.53"/>
    </edge>
    <edge id=":1067415803_1" function="internal">
        <lane id=":1067415803_1_0" index="0" allow="pedestrian delivery bicycle" speed="5.56" length="9.53" shape="1887.35,2245.50 1878.29,2242.57"/>
    </edge>
    <edge id=":1067415803_2" function="internal">
        <lane id=":1067415803_2_0" index="0" allow="pedestrian delivery bicycle" speed="5.56" length="10.29" shape="1887.35,2245.50 1884.83,2244.25 1883.28,2242.50 1882.71,2240.23 1883.12,2237.46"/>
    </edge>
    <edge id=":1067415803_3" function="internal">
        <lane id=":1067415803_3_0" index="0" allow="pedestrian delivery bicycle" speed="3.65" length="4.67" shape="1887.35,2245.50 1886.46,2244.36 1886.33,2243.48 1886.96,2242.85 1888.36,2242.46"/>
    </edge>
    <edge id=":1067415803_4" function="internal">
        <lane id=":1067415803_4_0" index="0" allow="pedestrian delivery bicycle" speed="5.19" length="5.24" shape="1886.19,2238.37 1885.98,2239.78 1886.27,2240.93 1887.07,2241.83 1888.36,2242.46"/>
    </edge>
    <edge id=":1067415803_5" function="internal">
        <lane id=":1067415803_5_0" index="0" allow="pedestrian delivery bicycle" speed="5.56" length="9.55" shape="1886.19,2238.37 1883.46,2247.53"/>
    </edge>
    <edge id=":1067415803_6" function="internal">
        <lane id=":1067415803_6_0" index="0" allow="pedestrian delivery bicycle" speed="5.56" length="10.25" shape="1886.19,2238.37 1885.01,2240.93 1883.31,2242.48 1881.06,2243.03 1878.29,2242.57"/>
    </edge>
    <edge id=":1067415803_7" function="internal">
        <lane id=":1067415803_7_0" index="0" allow="pedestrian delivery bicycle" speed="3.65" length="4.67" shape="1886.19,2238.37 1885.08,2239.29 1884.20,2239.45 1883.55,2238.84 1883.12,2237.46"/>
    </edge>
    <edge id=":1067415803_8" function="internal">
        <lane id=":1067415803_8_0" index="0" allow="pedestrian delivery bicycle" speed="5.02" length="5.02" shape="1879.25,2239.52 1880.61,2239.74 1881.71,2239.48 1882.54,2238.72 1883.12,2237.46"/>
    </edge>
    <edge id=":1067415803_9" function="internal">
        <lane id=":1067415803_9_0" index="0" allow="pedestrian delivery bicycle" speed="5.56" length="9.57" shape="1879.25,2239.52 1888.36,2242.46"/>
    </edge>
    <edge id=":1067415803_10" function="internal">
        <lane id=":1067415803_10_0" index="0" allow="pedestrian delivery bicycle" speed="5.56" length="10.28" shape="1879.25,2239.52 1881.78,2240.73 1883.32,2242.47 1883.88,2244.74 1883.46,2247.53"/>
    </edge>
    <edge id=":1067415803_11" function="internal">
        <lane id=":1067415803_11_0" index="0" allow="pedestrian delivery bicycle" speed="3.65" length="4.67" shape="1879.25,2239.52 1880.15,2240.64 1880.29,2241.53 1879.67,2242.17 1878.29,2242.57"/>
    </edge>
    <edge id=":1067415803_12" function="internal">
        <lane id=":1067415803_12_0" index="0" allow="pedestrian delivery bicycle" speed="5.14" length="5.18" shape="1880.39,2246.61 1880.61,2245.20 1880.33,2244.06 1879.55,2243.18 1878.29,2242.57"/>
    </edge>
    <edge id=":1067415803_13" function="internal">
        <lane id=":1067415803_13_0" index="0" allow="pedestrian delivery bicycle" speed="5.56" length="9.54" shape="1880.39,2246.61 1883.12,2237.46"/>
    </edge>
    <edge id=":1067415803_14" function="internal">
        <lane id=":1067415803_14_0" index="0" allow="pedestrian delivery bicycle" speed="5.56" length="10.30" shape="1880.39,2246.61 1881.58,2244.04 1883.31,2242.49 1885.57,2241.96 1888.36,2242.46"/>
    </edge>
    <edge id=":1067415803_15" function="internal">
        <lane id=":1067415803_15_0" index="0" allow="pedestrian delivery bicycle" speed="3.65" length="4.67" shape="1880.39,2246.61 1881.51,2245.69 1882.39,2245.54 1883.04,2246.15 1883.46,2247.53"/>
    </edge>
    <edge id=":1067415817_0" function="internal">
        <lane id=":1067415817_0_0" index="0" allow="pedestrian bicycle" speed="4.65" length="4.53" width="2.00" shape="1906.57,2340.91 1905.24,2340.60 1904.17,2340.72 1903.37,2341.26 1902.82,2342.24"/>
    </edge>
    <edge id=":1067415817_1" function="internal">
        <lane id=":1067415817_1_0" index="0" allow="pedestrian bicycle" speed="5.56" length="9.47" width="2.00" shape="1906.57,2340.91 1897.66,2337.71"/>
    </edge>
    <edge id=":1067415817_2" function="internal">
        <lane id=":1067415817_2_0" index="0" allow="pedestrian bicycle" speed="5.56" length="6.79" width="2.00" shape="1906.57,2340.91 1904.00,2339.89 1902.22,2338.98 1901.23,2338.17 1901.03,2337.46"/>
    </edge>
    <edge id=":1067415817_3" function="internal">
        <lane id=":1067415817_3_0" index="0" allow="pedestrian delivery bicycle" speed="5.56" length="4.06" shape="1904.09,2338.38 1902.82,2342.24"/>
    </edge>
    <edge id=":1067415817_4" function="internal">
        <lane id=":1067415817_4_0" index="0" allow="pedestrian bicycle" speed="5.56" length="6.80" width="2.00" shape="1904.09,2338.38 1903.52,2338.89 1902.26,2338.95 1900.31,2338.56 1897.66,2337.71"/>
    </edge>
    <edge id=":1067415817_5" function="internal">
        <lane id=":1067415817_5_0" index="0" allow="pedestrian delivery bicycle" speed="3.65" length="4.67" shape="1904.09,2338.38 1902.98,2339.30 1902.10,2339.45 1901.45,2338.84 1901.03,2337.46"/>
    </edge>
    <edge id=":1067415817_6" function="internal">
        <lane id=":1067415817_6_0" index="0" allow="pedestrian bicycle" speed="4.90" length="4.63" width="2.00" shape="1899.80,2341.19 1899.98,2340.07 1899.68,2339.11 1898.91,2338.33 1897.66,2337.71"/>
    </edge>
    <edge id=":1067415817_7" function="internal">
        <lane id=":1067415817_7_0" index="0" allow="pedestrian delivery bicycle" speed="5.56" length="3.93" shape="1899.80,2341.19 1901.03,2337.46"/>
    </edge>
    <edge id=":1067415817_8" function="internal">
        <lane id=":1067415817_8_0" index="0" allow="pedestrian delivery bicycle" speed="3.65" length="4.67" shape="1899.80,2341.19 1900.95,2340.32 1901.83,2340.20 1902.46,2340.84 1902.82,2342.24"/>
    </edge>
    <edge id=":1067415862_0" function="internal">
        <lane id=":1067415862_0_0" index="0" allow="pedestrian bicycle" speed="2.89" length="2.92" width="2.00" shape="1438.30,2655.26 1438.56,2654.39 1438.96,2654.01 1439.51,2654.10 1440.21,2654.67"/>
    </edge>
    <edge id=":1144193283_0" function="internal">
        <lane id=":1144193283_0_0" index="0" allow="pedestrian motorcycle moped bicycle" speed="5.56" length="0.73" shape="615.47,2758.93 615.42,2758.72 615.39,2758.57 615.37,2758.43 615.35,2758.21"/>
    </edge>
    <edge id=":1144193283_1" function="internal">
        <lane id=":1144193283_1_0" index="0" allow="pedestrian motorcycle moped bicycle" speed="5.56" length="0.24" shape="618.53,2757.90 618.54,2757.97 618.54,2758.02 618.55,2758.07 618.57,2758.14"/>
    </edge>
    <edge id=":1144193290_0" function="internal">
        <lane id=":1144193290_0_0" index="0" disallow="tram rail_urban rail rail_electric rail_fast ship" speed="16.67" length="9.34" shape="716.70,2962.50 707.36,2962.83"/>
    </edge>
    <edge id=":1144193290_1" function="internal">
        <lane id=":1144193290_1_0" index="0" allow="pedestrian delivery bicycle" speed="6.69" length="3.37" shape="716.70,2962.50 714.01,2962.25 713.40,2961.96"/>
    </edge>
    <edge id=":1144193290_7" function="internal">